*Model Generated by Fede
*Diodo ideal
.MODEL DIODO D()

*Model Generated by Protel
*Typ RED,GREEN,YELLOW,AMBER GaAs LED: Vf=2.1V Vr=4V If=40mA trr=3uS
*LED Pinout: 1=A, 2=K
.MODEL LED D(IS=93.1p RS=42m N=4.61 BV=4 IBV=10u CJO=2.97p VJ=.75 M=.333 TT=4.32u)

*Model Generated by Protel
*originalmente tenía Ibv=0.1p pero lo cambié a 1n, total, no cambia mucho, y gano
*que no me tira un warning cada vez que simulo
*interpreto que Is es al principio de la inversión de polaridad del diodo, y que Ibv es antes de que
*se produzca la ruptura por inversa
.MODEL 1N4148 D(Is=0.1p Rs=16 CJO=2p Tt=12n Bv=100 Ibv=1n)

*Model Generated by MODPEX
*Schottky Diode
*Originalmente tenía IBV=0.001 pero lo cambié a IBV=0.0185
*para que no me tire un warning cada vez que simulo
.MODEL 1N5819 D(IS=1.19279e-05 RS=0.0625421 N=1.16517 EG=1.3
+XTI=3.22098 BV=40 IBV=0.0185 CJO=1.50114e-10
*+XTI=3.22098 BV=40 IBV=0.001 CJO=1.50114e-10
+VJ=1.5 M=0.590203 FC=0.5 TT=2.6273e-08
+KF=0 AF=1)

*Model Generated by MODPEX
*Schottky Diode
*Originalmente tenía IBV=0.002 pero lo cambié a IBV=0.444
*para que no me tire un warning cada vez que simulo
.MODEL 1N5822 D(IS=0.00028701 RS=0.0391772 N=1.49609 EG=0.646618
+XTI=0.5 BV=40 IBV=0.444 CJO=4.82267e-10
+VJ=1.5 M=0.521445 FC=0.5 TT=0
+KF=0 AF=1)

*Model Generated by MODPEX
*Schottky Diode
.MODEL MBR360 D(IS=1e-07 RS=0.0621601 N=0.889172 EG=0.570452
+XTI=4 BV=60 IBV=0.0006 CJO=5.19446e-10
+VJ=0.4 M=0.499812 FC=0.5 TT=0
+KF=0 AF=1)

*Model Generated by MODPEX
*Schottky Diode
*Originalmente tenía IBV=0.0001 pero lo cambié a IBV=0.787
*para que no me tire un warning cada vez que simulo
.MODEL MBR1045 D(IS=0.000452023 RS=0.0106817 N=2 EG=0.756448
+XTI=0.5 BV=45 IBV=0.787 CJO=9.76571e-10
+VJ=0.476396 M=0.434536 FC=0.5 TT=0
+KF=0 AF=1)

*Model Generated by MODPEX
*Schottky Diode
*Originalmente tenía IBV=0.0002 pero lo cambié a IBV=0.0605
*para que no me tire un warning cada vez que simulo
.MODEL MBR1645 D(IS=3.47597e-05 RS=0.00960369 N=1.28962 EG=0.428428
+XTI=5 BV=45 IBV=0.0605 CJO=1e-11
+VJ=0.7 M=0.5 FC=0.5 TT=0
+KF=0 AF=1)

*Model Generated by MODPEX
*Schottky Diode
*Originalmente tenía IBV=0.001 pero lo cambié a IBV=0.25
*para que no me tire un warning cada vez que simulo
.MODEL MBR3045 D(IS=0.000143686 RS=0.00689707 N=1.56323 EG=0.661919
+XTI=3.08622 BV=45 IBV=0.25 CJO=2.56666e-09
+VJ=0.4 M=0.459188 FC=0.5 TT=0
+KF=0 AF=1)


*Del Protel
*1N4001 MCE 8-16-95
*50V 1A Si GenPurpose Diode pkg:DIODE0.4 1,2
.MODEL 1N4001 D(IS=2.55E-9 RS=0.042 N=1.75 TT=5.76E-6 CJO=1.85E-11
+ VJ=0.75 M=0.333 BV=50 IBV=1E-5 )

*Del Protel
*1N4002 MCE 8-16-95
*100V 1A Si GenPurpose Diode pkg:DIODE0.4 1,2
.MODEL 1N4002 D(IS=2.55E-9 RS=0.042 N=1.75 TT=5.76E-6 CJO=1.85E-11
+ VJ=0.75 M=0.333 BV=100 IBV=1E-5 )

*Del Protel
*1N4003 MCE 8-16-95
*200V 1A Si GenPurpose Diode pkg:DIODE0.4 1,2
.MODEL 1N4003 D(IS=2.55E-9 RS=0.042 N=1.75 TT=5.76E-6 CJO=1.85E-11
+ VJ=0.75 M=0.333 BV=200 IBV=1.98E-5 )

*Del Protel
*1N4004 MCE 8-16-95
*400V 1A Si GenPurpose Diode pkg:DIODE0.4 1,2
.MODEL 1N4004 D(IS=2.55E-9 RS=0.042 N=1.75 TT=5.76E-6 CJO=1.85E-11
+ VJ=0.75 M=0.333 BV=400 IBV=3.95E-5 )

*Del Protel
*1N4005 MCE 8-16-95
*600V 1A Si GenPurpose Diode pkg:DIODE0.4 1,2
.MODEL 1N4005 D(IS=2.55E-9 RS=0.042 N=1.75 TT=5.76E-6 CJO=1.85E-11
+ VJ=0.75 M=0.333 BV=600 IBV=5.92E-5 )

*Del Protel
*1N4006 MCE 8-16-95
*800V 1A Si GenPurpose Diode pkg:DIODE0.4 1,2
.MODEL 1N4006 D(IS=2.55E-9 RS=0.042 N=1.75 TT=5.76E-6 CJO=1.85E-11
+ VJ=0.75 M=0.333 BV=800 IBV=7.89E-5 )

*Del Protel
*1N4007 MCE 8-16-95
*1000V 1A Si GenPurpose Diode pkg:DIODE0.4 1,2
.MODEL 1N4007 D(IS=2.55E-9 RS=0.042 N=1.75 TT=5.76E-6 CJO=1.85E-11
+ VJ=0.75 M=0.333 BV=1000 IBV=9.86E-5 )



*De protel
* jjt 9/8/2000: measured Vz was 0.0433% (1.5 mV) too high for +5% tolerance;
*               original BV = 3.027
*          changed to BV = 3.025 to fall within +%5 tolerance
*               (the measured Vz is now 0.0173% beneath the +5% mark)
*1N746
*Ref: Motorola
*3.3V 500mW Si Zener pkg:DIODE0.4 1,2
.MODEL 1N746 D(IS=1E-11 RS=13.65 N=1.27 TT=5E-8 CJO=5.826E-10 VJ=0.75 M=0.33 BV=3.025 IBV=0.01 )
* Origin: Mcediode.lib

*De Protel
*1N747
*Ref: Motorola
*3.6V 500mW Si Zener pkg:DIODE0.4 1,2
.MODEL 1N747 D(IS=1E-11 RS=12.8 N=1.27 TT=5E-8 CJO=5.422E-10 VJ=0.75
+ M=0.33 BV=3.344 IBV=0.01 )
* Origin: Mcediode.lib




*De Protel
*1N748
*Ref: Motorola
*3.9V 500mW Si Zener pkg:DIODE0.4 1,2
.MODEL 1N748 D(IS=1E-11 RS=11.84 N=1.27 TT=5E-8 CJO=5.076E-10 VJ=0.75
+ M=0.33 BV=3.663 IBV=0.01 )
* Origin: Mcediode.lib

*De Protel
*1N749
*Ref: Motorola
*4.3V 500mW Si Zener pkg:DIODE0.4 1,2
.MODEL 1N749 D(IS=1E-11 RS=10.47 N=1.27 TT=5E-8 CJO=4.683E-10 VJ=0.75
+ M=0.33 BV=4.091 IBV=0.01 )
* Origin: Mcediode.lib

*1N750
*Ref: Motorola
*4.7V 500mW Si Zener pkg:DIODE0.4 1,2
.MODEL 1N750 D(IS=1E-11 RS=9.066 N=1.27 TT=5E-8 CJO=4.351E-10 VJ=0.75
+ M=0.33 BV=4.519 IBV=0.01 )
* Origin: Mcediode.lib

*1N751
*Ref: Motorola
*5.1V 500mW Si Zener pkg:DIODE0.4 1,2
.MODEL 1N751 D(IS=1E-11 RS=7.708 N=1.27 TT=5E-8 CJO=4.068E-10 VJ=0.75
+ M=0.33 BV=4.946 IBV=0.01 )
* Origin: Mcediode.lib



*1N752
*Ref: Motorola
*5.6V 500mW Si Zener pkg:DIODE0.4 1,2
.MODEL 1N752 D(IS=1E-11 RS=6.168 N=1.27 TT=5E-8 CJO=3.766E-10 VJ=0.75
+ M=0.33 BV=5.477 IBV=0.01 )
* Origin: Mcediode.lib

*1N753
*Ref: Motorola
*6.2V 500mW Si Zener pkg:DIODE0.4 1,2
.MODEL 1N753 D(IS=1E-11 RS=4.685 N=1.27 TT=5E-8 CJO=3.463E-10 VJ=0.75
+ M=0.33 BV=6.106 IBV=0.01 )
* Origin: Mcediode.lib

*1N754
*Ref: Motorola
*6.8V 500mW Si Zener pkg:DIODE0.4 1,2
.MODEL 1N754 D(IS=1E-11 RS=3.721 N=1.27 TT=5E-8 CJO=3.209E-10 VJ=0.75
+ M=0.33 BV=6.726 IBV=0.01 )
* Origin: Mcediode.lib

*1N755
*Ref: Motorola
*7.5V 500mW Si Zener pkg:DIODE0.4 1,2
.MODEL 1N755 D(IS=1E-11 RS=3.359 N=1.27 TT=5E-8 CJO=2.959E-10 VJ=0.75
+ M=0.33 BV=7.433 IBV=0.01 )
* Origin: Mcediode.lib


*1N756
*Ref: Motorola
*8.2V 500mW Si Zener pkg:DIODE0.4 1,2
.MODEL 1N756 D(IS=1E-11 RS=3.858 N=1.27 TT=5E-8 CJO=2.749E-10 VJ=0.75
+ M=0.33 BV=8.123 IBV=0.01 )
* Origin: Mcediode.lib

*1N757
*Ref: Motorola
*9.1V 500mW Si Zener pkg:DIODE0.4 1,2
.MODEL 1N757 D(IS=1E-11 RS=5.672 N=1.27 TT=5E-8 CJO=2.523E-10 VJ=0.75
+ M=0.33 BV=8.987 IBV=0.01 )
* Origin: Mcediode.lib

*1N758
*Ref: Motorola
*10V 500mW Si Zener pkg:DIODE0.4 1,2
.MODEL 1N758 D(IS=1E-11 RS=8.483 N=1.27 TT=5E-8 CJO=2.334E-10 VJ=0.75
+ M=0.33 BV=9.83 IBV=0.01 )
* Origin: Mcediode.lib

*1N759
*Ref: Motorola
*12V 500mW Si Zener pkg:DIODE0.4 1,2
.MODEL 1N759 D(IS=1E-11 RS=14.95 N=1.27 TT=5E-8 CJO=2.008E-10 VJ=0.75
+ M=0.33 BV=11.7 IBV=0.01 )
* Origin: Mcediode.lib

* otro modelo, que no voy a usar .MODEL UF4007 D (IKF=.15 N=2 IS=100n RS=0.03 EG=1.11 XTI=3 CJO=2.92655E-011 VJ=0.851862 M=0.334552 FC=0.5 TT=TT=1.84973E-007 BV=1000 IBV=0.2 KF=0 AF=1 Iave=1000m Vpk=800 mfg=GP1000V1A type=silicon)

****************************************
* (c)1999 Thomatronik GmbH             *
*   info@thomatronik.de                *
*                                      *
* Author: Arpad Buermen                *
*   Arpad.Burmen@ieee.org              *
*http://www.vishay.com/docs/88184/uf4007.txt
****************************************

.MODEL UF4007 D (
+   N=3.97671
+  IS=3.28772E-006
+  RS=0.149734
+  EG=1.11
+ XTI=3
+ CJO=2.92655E-011
+  VJ=0.851862
+   M=0.334552
+  FC=0.5
+  TT=1.84973E-007
+  BV=1000
+ IBV=0.2
+  KF=0
+  AF=1 )
******************************************************************************
