MODELO TRANSFORMADOR
*SPICE Netlist generated by Advanced Sim server on 2/9/2008 10:52:44 PM

*Schematic Netlist:
E1 8 9 6 2 N2N1
VF1 4 9 0V
F1 6 2 VF1 N2N1
Lm 6 2 LMAG
LP 0 5 LPRIM
LS 7 3 LSEC
RP 5 6 RESPRIM
RS 8 7 RESSEC

.SAVE 0 2 3 4 5 6 7 8 9 VF1#branch @VF1[z] @Lm[i] @LP[i] @LS[i] @RP[i] @RS[i]
.SAVE @E1[p] @F1[p] @Lm[p] @LP[p] @LS[p] @RP[p] @RS[p] @VF1[p]

*PLOT TRAN -1 1 A=2
*PLOT OP -1 1 A=2

*Selected Circuit Analyses:
.TRAN 2E-8 5E-6 0 2E-8
.OP

.END
