* Library of IRF Power MOSFET Models

* Revision:   1.0  
* Author:   HIRASUNA  
* Date:   May 2004   
*
*------------------------------------------------------------------

.SUBCKT 2n6782 1 2 3
**************************************
*      Model Generated by MODPEX     *
*Copyright(c) Symmetry Design Systems*
*         All Rights Reserved        *
*    UNPUBLISHED LICENSED SOFTWARE   *
*   Contains Proprietary Information *
*      Which is The Property of      *
*     SYMMETRY OR ITS LICENSORS      *
*Commercial Use or Resale Restricted *
*   by Symmetry License Agreement    *
**************************************
* Model generated on Aug  7, 97
* MODEL FORMAT: SPICE3
* Symmetry POWER MOS Model (Version 1.0)
* External Node Designations
* Node 1 -> Drain
* Node 2 -> Gate
* Node 3 -> Source
M1 9 7 8 8 MM L=100u W=100u
* Default values used in MM:
* The voltage-dependent capacitances are
* not included. Other default values are:
*   RS=0 RD=0 LD=0 CBD=0 CBS=0 CGBO=0
.MODEL MM NMOS LEVEL=1 IS=1e-32
+VTO=3.72679 LAMBDA=0.0010228 KP=4.45837
+CGSO=1.69987e-06 CGDO=5.31685e-08
RS 8 3 0.233311
D1 3 1 MD
.MODEL MD D IS=1.33524e-10 RS=0.044797 N=1.30027 BV=100
+IBV=0.001 EG=1 XTI=1 TT=0
+CJO=2.66373e-10 VJ=1.35575 M=0.464649 FC=0.5
RDS 3 1 3.2e+06
RD 9 1 0.0410006
RG 2 7 36.2728
D2 4 5 MD1
* Default values used in MD1:
*   RS=0 EG=1.11 XTI=3.0 TT=0
*   BV=infinite IBV=1mA
.MODEL MD1 D IS=1e-32 N=50
+CJO=2.03413e-10 VJ=0.500077 M=0.75584 FC=1e-08
D3 0 5 MD2
* Default values used in MD2:
*   EG=1.11 XTI=3.0 TT=0 CJO=0
*   BV=infinite IBV=1mA
.MODEL MD2 D IS=1e-10 N=0.402735 RS=3e-06
RL 5 10 1
FI2 7 9 VFI2 -1
VFI2 4 0 0
EV16 10 0 9 7 1
CAP 11 10 3.10796e-10
FI1 7 9 VFI1 -1
VFI1 11 6 0
RCAP 6 10 1
D4 0 6 MD3
* Default values used in MD3:
*   EG=1.11 XTI=3.0 TT=0 CJO=0
*   RS=0 BV=infinite IBV=1mA
.MODEL MD3 D IS=1e-10 N=0.402735
.ENDS 2n6782
*$

.SUBCKT 2n6845 1 2 3
**************************************
*      Model Generated by MODPEX     *
*Copyright(c) Symmetry Design Systems*
*         All Rights Reserved        *
*    UNPUBLISHED LICENSED SOFTWARE   *
*   Contains Proprietary Information *
*      Which is The Property of      *
*     SYMMETRY OR ITS LICENSORS      *
*Commercial Use or Resale Restricted *
*   by Symmetry License Agreement    *
**************************************
* Model generated on Aug  8, 97
* MODEL FORMAT: SPICE3
* Symmetry POWER MOS Model (Version 1.0)
* External Node Designations
* Node 1 -> Drain
* Node 2 -> Gate
* Node 3 -> Source
M1 9 7 8 8 MM L=100u W=100u
* Default values used in MM:
* The voltage-dependent capacitances are
* not included. Other default values are:
*   RS=0 RD=0 LD=0 CBD=0 CBS=0 CGBO=0
.MODEL MM PMOS LEVEL=1 IS=1e-32
+VTO=-3.297 LAMBDA=0.0203123 KP=2.39458
+CGSO=3.47517e-06 CGDO=1e-11
RS 8 3 0.217097
D1 1 3 MD
.MODEL MD D IS=1e-17 RS=0.794511 N=1.5 BV=100
+IBV=0.001 EG=1.2 XTI=4 TT=4.45788e-06
+CJO=4.94008e-10 VJ=1.36203 M=0.445161 FC=0.5
RDS 3 1 3.2e+06
RD 9 1 0.181946
RG 2 7 41.8313
D2 5 4 MD1
* Default values used in MD1:
*   RS=0 EG=1.11 XTI=3.0 TT=0
*   BV=infinite IBV=1mA
.MODEL MD1 D IS=1e-32 N=50
+CJO=2.96481e-10 VJ=3.35785 M=0.9 FC=1e-08
D3 5 0 MD2
* Default values used in MD2:
*   EG=1.11 XTI=3.0 TT=0 CJO=0
*   BV=infinite IBV=1mA
.MODEL MD2 D IS=1e-10 N=1 RS=3e-06
RL 5 10 1
FI2 7 9 VFI2 -1
VFI2 4 0 0
EV16 10 0 9 7 1
CAP 11 10 6.64711e-10
FI1 7 9 VFI1 -1
VFI1 11 6 0
RCAP 6 10 1
D4 6 0 MD3
* Default values used in MD3:
*   EG=1.11 XTI=3.0 TT=0 CJO=0
*   RS=0 BV=infinite IBV=1mA
.MODEL MD3 D IS=1e-10 N=1
.ENDS 2n6845
*$

.SUBCKT 2n7269 1 2 3
**************************************
*      Model Generated by MODPEX     *
*Copyright(c) Symmetry Design Systems*
*         All Rights Reserved        *
*    UNPUBLISHED LICENSED SOFTWARE   *
*   Contains Proprietary Information *
*      Which is The Property of      *
*     SYMMETRY OR ITS LICENSORS      *
*Commercial Use or Resale Restricted *
*   by Symmetry License Agreement    *
**************************************
* Model generated on Nov 25, 96
* MODEL FORMAT: SPICE3
* Symmetry POWER MOS Model (Version 1.0)
* External Node Designations
* Node 1 -> Drain
* Node 2 -> Gate
* Node 3 -> Source
M1 9 7 8 8 MM L=100u W=100u
* Default values used in MM:
* The voltage-dependent capacitances are
* not included. Other default values are:
*   RS=0 RD=0 LD=0 CBD=0 CBS=0 CGBO=0
.MODEL MM NMOS LEVEL=1 IS=1e-32
+VTO=4.07963 LAMBDA=0.00367801 KP=50.7447
+CGSO=4.312e-05 CGDO=1e-11
RS 8 3 0.0336551
D1 3 1 MD
.MODEL MD D IS=1.44812e-08 RS=0.0141739 N=1.5 BV=200
+IBV=10 EG=1 XTI=1 TT=0
+CJO=2.52838e-09 VJ=2.35965 M=0.680717 FC=0.468796
RDS 3 1 6e+06
RD 9 1 0.0304844
RG 2 7 15.1693
D2 4 5 MD1
* Default values used in MD1:
*   RS=0 EG=1.11 XTI=3.0 TT=0
*   BV=infinite IBV=1mA
.MODEL MD1 D IS=1e-32 N=50
+CJO=3.80686e-09 VJ=0.711884 M=0.9 FC=1e-08
D3 0 5 MD2
* Default values used in MD2:
*   EG=1.11 XTI=3.0 TT=0 CJO=0
*   BV=infinite IBV=1mA
.MODEL MD2 D IS=1e-10 N=0.406203 RS=3.00001e-06
RL 5 10 1
FI2 7 9 VFI2 -1
VFI2 4 0 0
EV16 10 0 9 7 1
CAP 11 10 5.50972e-09
FI1 7 9 VFI1 -1
VFI1 11 6 0
RCAP 6 10 1
D4 0 6 MD3
* Default values used in MD3:
*   EG=1.11 XTI=3.0 TT=0 CJO=0
*   RS=0 BV=infinite IBV=1mA
.MODEL MD3 D IS=1e-10 N=0.406203
.ENDS 2n7269
*$

.MODEL 5eq100 d
+IS=8.77154e-05 RS=0.0202145 N=2 EG=0.815312
+XTI=3.9995 BV=100 IBV=0.005 CJO=1.06148e-09
+VJ=0.79108 M=0.475554 FC=0.5 TT=0
+KF=0 AF=1
* Model generated on May 28, 96
* Model format: SPICE3
*$

**************************************
*      Model Generated by MODPEX     *
*Copyright(c) Symmetry Design Systems*
*         All Rights Reserved        *
*    UNPUBLISHED LICENSED SOFTWARE   *
*   Contains Proprietary Information *
*      Which is The Property of      *
*     SYMMETRY OR ITS LICENSORS      *
*Commercial Use or Resale Restricted *
*   by Symmetry License Agreement    *
**************************************
* Model generated on Feb 15, 02
* MODEL FORMAT: SPICE3
.MODEL 6cwq10fn d
+IS=1.92816e-06 RS=0.0227346 N=2 EG=0.6
+XTI=0.5 BV=100 IBV=0.001 CJO=2.9028e-10
+VJ=0.4 M=0.453836 FC=0.5 TT=1e-09
+KF=0 AF=1
*$

**************************************
*      Model Generated by MODPEX     *
*Copyright(c) Symmetry Design Systems*
*         All Rights Reserved        *
*    UNPUBLISHED LICENSED SOFTWARE   *
*   Contains Proprietary Information *
*      Which is The Property of      *
*     SYMMETRY OR ITS LICENSORS      *
*Commercial Use or Resale Restricted *
*   by Symmetry License Agreement    *
**************************************
* Model generated on Sep 17, 96
* MODEL FORMAT: SPICE3
.MODEL 6tq045 d
+IS=1.1357e-08 RS=0.0148614 N=0.895316 EG=1.3
+XTI=4 BV=45 IBV=0.0001 CJO=7.53573e-10
+VJ=1.5 M=0.502931 FC=0.5 TT=0
+KF=0 AF=1
*$

.MODEL 8eq045 d
+IS=1.8026e-05 RS=0.0138308 N=1.50131 EG=0.689509
+XTI=4 BV=45 IBV=0.005 CJO=1.98488e-09
+VJ=0.711167 M=0.477336 FC=0.5 TT=0
+KF=0 AF=1
* Model generated on May 28, 96
* Model format: SPICE3
*$

**************************************
*      Model Generated by MODPEX     *
*Copyright(c) Symmetry Design Systems*
*         All Rights Reserved        *
*    UNPUBLISHED LICENSED SOFTWARE   *
*   Contains Proprietary Information *
*      Which is The Property of      *
*     SYMMETRY OR ITS LICENSORS      *
*Commercial Use or Resale Restricted *
*   by Symmetry License Agreement    *
**************************************
* Model generated on Sep  9, 02
* MODEL FORMAT: SPICE3
.MODEL 8eth06 d
+IS=6.92843e-10 RS=0.121017 N=2 EG=1.3
+XTI=0.528448 BV=600 IBV=0.0001 CJO=1.56732e-10
+VJ=0.4 M=0.404011 FC=0.5 TT=1e-09
+KF=0 AF=1
*$

**************************************
*      Model Generated by MODPEX     *
*Copyright(c) Symmetry Design Systems*
*         All Rights Reserved        *
*    UNPUBLISHED LICENSED SOFTWARE   *
*   Contains Proprietary Information *
*      Which is The Property of      *
*     SYMMETRY OR ITS LICENSORS      *
*Commercial Use or Resale Restricted *
*   by Symmetry License Agreement    *
**************************************
* Model generated on Oct 25, 96
* MODEL FORMAT: SPICE3
.MODEL 8ews08 d
+IS=1.04304e-07 RS=0.0103888 N=2 EG=1.28885
+XTI=3.00461 BV=800 IBV=0.0001 CJO=1e-11
+VJ=0.7 M=0.5 FC=0.5 TT=1e-09
+KF=0 AF=1
*$

**************************************
*      Model Generated by MODPEX     *
*Copyright(c) Symmetry Design Systems*
*         All Rights Reserved        *
*    UNPUBLISHED LICENSED SOFTWARE   *
*   Contains Proprietary Information *
*      Which is The Property of      *
*     SYMMETRY OR ITS LICENSORS      *
*Commercial Use or Resale Restricted *
*   by Symmetry License Agreement    *
**************************************
* Model generated on Oct 25, 96
* MODEL FORMAT: SPICE3
.MODEL 8ews10 d
+IS=1.17378e-07 RS=0.0104837 N=2 EG=1.29966
+XTI=3.06473 BV=1000 IBV=0.0001 CJO=1e-11
+VJ=0.7 M=0.5 FC=0.5 TT=1e-09
+KF=0 AF=1
*$

**************************************
*      Model Generated by MODPEX     *
*Copyright(c) Symmetry Design Systems*
*         All Rights Reserved        *
*    UNPUBLISHED LICENSED SOFTWARE   *
*   Contains Proprietary Information *
*      Which is The Property of      *
*     SYMMETRY OR ITS LICENSORS      *
*Commercial Use or Resale Restricted *
*   by Symmetry License Agreement    *
**************************************
* Model generated on Oct 25, 96
* MODEL FORMAT: SPICE3
.MODEL 8ews12 d
+IS=1e-07 RS=0.0115955 N=1.9747 EG=0.6
+XTI=0.5 BV=1200 IBV=0.0001 CJO=1e-11
+VJ=0.7 M=0.5 FC=0.5 TT=1e-09
+KF=0 AF=1
*$

.MODEL 10bq015 d
+IS=1.66692e-05 RS=0.0549971 N=1.0339 EG=0.6
+XTI=0.5 BV=15 IBV=0.001 CJO=4.70891e-10
+VJ=1.5 M=0.699718 FC=0.5 TT=0
+KF=0 AF=1
* Model generated on May 28, 96
* Model format: SPICE3
*$

.MODEL 10bq040 d
+IS=2.13126e-05 RS=0.123203 N=1.53952 EG=0.600841
+XTI=3.78803 BV=40 IBV=0.0001 CJO=1.53747e-10
+VJ=1.5 M=0.476132 FC=0.5 TT=0
+KF=0 AF=1
* Model generated on May 28, 96
* Model format: SPICE3
*$

**************************************
*      Model Generated by MODPEX     *
*Copyright(c) Symmetry Design Systems*
*         All Rights Reserved        *
*    UNPUBLISHED LICENSED SOFTWARE   *
*   Contains Proprietary Information *
*      Which is The Property of      *
*     SYMMETRY OR ITS LICENSORS      *
*Commercial Use or Resale Restricted *
*   by Symmetry License Agreement    *
**************************************
* Model generated on May 13, 98
* MODEL FORMAT: SPICE3
.MODEL 10bq100 d
+IS=3.8291e-09 RS=100 N=2 EG=0.600259
+XTI=0.5 BV=100 IBV=0.0001 CJO=9.19104e-11
+VJ=1.5 M=0.527626 FC=0.5 TT=1e-09
+KF=0 AF=1
*$

**************************************
*      Model Generated by MODPEX     *
*Copyright(c) Symmetry Design Systems*
*         All Rights Reserved        *
*    UNPUBLISHED LICENSED SOFTWARE   *
*   Contains Proprietary Information *
*      Which is The Property of      *
*     SYMMETRY OR ITS LICENSORS      *
*Commercial Use or Resale Restricted *
*   by Symmetry License Agreement    *
**************************************
* Model generated on Feb  4, 02
* MODEL FORMAT: SPICE3
.MODEL 10ctq150 d
+IS=1.63362e-06 RS=0.0221615 N=2 EG=0.6
+XTI=0.5 BV=150 IBV=5e-05 CJO=4.60092e-10
+VJ=0.759589 M=0.500823 FC=0.5 TT=1e-09
+KF=0 AF=1
*$

**************************************
*      Model Generated by MODPEX     *
*Copyright(c) Symmetry Design Systems*
*         All Rights Reserved        *
*    UNPUBLISHED LICENSED SOFTWARE   *
*   Contains Proprietary Information *
*      Which is The Property of      *
*     SYMMETRY OR ITS LICENSORS      *
*Commercial Use or Resale Restricted *
*   by Symmetry License Agreement    *
**************************************
* Model generated on Apr  22, 99
* MODEL FORMAT: SPICE3
.MODEL 10mq060n d
+IS=1e-07 RS=0.142057 N=1.06198 EG=0.6
+XTI=0.5 BV=60 IBV=0.0001 CJO=8.36264e-11
+VJ=1.5 M=0.497422 FC=0.5 TT=1e-09
+KF=0 AF=1
*$

**************************************
*      Model Generated by MODPEX     *
*Copyright(c) Symmetry Design Systems*
*         All Rights Reserved        *
*    UNPUBLISHED LICENSED SOFTWARE   *
*   Contains Proprietary Information *
*      Which is The Property of      *
*     SYMMETRY OR ITS LICENSORS      *
*Commercial Use or Resale Restricted *
*   by Symmetry License Agreement    *
**************************************
* Model generated on Sep 17, 96
* MODEL FORMAT: SPICE3
.MODEL 10tq045 d
+IS=9.81804e-08 RS=0.00739225 N=0.993075 EG=0.6
+XTI=0.5 BV=45 IBV=0.0001 CJO=1.42434e-09
+VJ=1.5 M=0.479175 FC=0.5 TT=0
+KF=0 AF=1
*$

**************************************
*      Model Generated by MODPEX     *
*Copyright(c) Symmetry Design Systems*
*         All Rights Reserved        *
*    UNPUBLISHED LICENSED SOFTWARE   *
*   Contains Proprietary Information *
*      Which is The Property of      *
*     SYMMETRY OR ITS LICENSORS      *
*Commercial Use or Resale Restricted *
*   by Symmetry License Agreement    *
**************************************
* Model generated on Oct 12, 00
* MODEL FORMAT: SPICE3
.MODEL 12cgq150 d
+IS=2.4863e-05 RS=0.0252929 N=2 EG=1.3
+XTI=0.5 BV=150 IBV=0.0001 CJO=6.35956e-10
+VJ=1.5 M=0.562241 FC=0.5 TT=0
+KF=0 AF=1
*$

**************************************
*      Model Generated by MODPEX     *
*Copyright(c) Symmetry Design Systems*
*         All Rights Reserved        *
*    UNPUBLISHED LICENSED SOFTWARE   *
*   Contains Proprietary Information *
*      Which is The Property of      *
*     SYMMETRY OR ITS LICENSORS      *
*Commercial Use or Resale Restricted *
*   by Symmetry License Agreement    *
**************************************
* Model generated on Sep 17, 96
* MODEL FORMAT: SPICE3
.MODEL 12ctq045 d
+IS=5.30534e-09 RS=0.014271 N=0.891364 EG=0.6
+XTI=0.5 BV=45 IBV=0.0001 CJO=7.11199e-10
+VJ=1.5 M=0.484798 FC=0.5 TT=0
+KF=0 AF=1
*$

**************************************
*      Model Generated by MODPEX     *
*Copyright(c) Symmetry Design Systems*
*         All Rights Reserved        *
*    UNPUBLISHED LICENSED SOFTWARE   *
*   Contains Proprietary Information *
*      Which is The Property of      *
*     SYMMETRY OR ITS LICENSORS      *
*Commercial Use or Resale Restricted *
*   by Symmetry License Agreement    *
**************************************
* Model generated on Sep 17, 96
* MODEL FORMAT: SPICE3
.MODEL 12tq045 d
+IS=1.61329e-12 RS=0.01 N=0.5 EG=0.600004
+XTI=0.5 BV=45 IBV=0.0001 CJO=1.59319e-09
+VJ=1.5 M=0.52241 FC=0.5 TT=0
+KF=0 AF=1
*$

**************************************
*      Model Generated by MODPEX     *
*Copyright(c) Symmetry Design Systems*
*         All Rights Reserved        *
*    UNPUBLISHED LICENSED SOFTWARE   *
*   Contains Proprietary Information *
*      Which is The Property of      *
*     SYMMETRY OR ITS LICENSORS      *
*Commercial Use or Resale Restricted *
*   by Symmetry License Agreement    *
**************************************
* Model generated on Mar 19, 01
* MODEL FORMAT: SPICE3
.MODEL 15cgq100 d
+IS=8.74079e-05 RS=0.0180811 N=2 EG=1.3
+XTI=3.01057 BV=100 IBV=0.0001 CJO=1.08792e-09
+VJ=0.846153 M=0.498115 FC=0.5 TT=0
+KF=0 AF=1
*$

.MODEL 15clq100 d
+IS=6.44968e-05 RS=0.014091 N=2 EG=0.996757
+XTI=0.5 BV=100 IBV=0.005 CJO=1.38463e-09
+VJ=0.4 M=0.466344 FC=0.5 TT=0
+KF=0 AF=1
* Model generated on May 28, 96
* Model format: SPICE3
*$

**************************************
*      Model Generated by MODPEX     *
*Copyright(c) Symmetry Design Systems*
*         All Rights Reserved        *
*    UNPUBLISHED LICENSED SOFTWARE   *
*   Contains Proprietary Information *
*      Which is The Property of      *
*     SYMMETRY OR ITS LICENSORS      *
*Commercial Use or Resale Restricted *
*   by Symmetry License Agreement    *
**************************************
* Model generated on Sep  9, 02
* MODEL FORMAT: SPICE3
.MODEL 15eth06 d
+IS=2.2756e-08 RS=0.0177161 N=2 EG=0.6
+XTI=0.500021 BV=600 IBV=0.0001 CJO=1.6387e-10
+VJ=0.71953 M=0.37991 FC=0.5 TT=1e-09
+KF=0 AF=1
*$

**************************************
*      Model Generated by MODPEX     *
*Copyright(c) Symmetry Design Systems*
*         All Rights Reserved        *
*    UNPUBLISHED LICENSED SOFTWARE   *
*   Contains Proprietary Information *
*      Which is The Property of      *
*     SYMMETRY OR ITS LICENSORS      *
*Commercial Use or Resale Restricted *
*   by Symmetry License Agreement    *
**************************************
* Model generated on Apr 12, 01
* MODEL FORMAT: SPICE3
.MODEL 15ljq100 d
+IS=6.15446e-05 RS=0.0153982 N=1.88088 EG=1.3
+XTI=3.60437 BV=100 IBV=0.0001 CJO=1.08848e-09
+VJ=0.4 M=0.371667 FC=0.5 TT=1e-09
+KF=0 AF=1
*$

**************************************
*      Model Generated by MODPEX     *
*Copyright(c) Symmetry Design Systems*
*         All Rights Reserved        *
*    UNPUBLISHED LICENSED SOFTWARE   *
*   Contains Proprietary Information *
*      Which is The Property of      *
*     SYMMETRY OR ITS LICENSORS      *
*Commercial Use or Resale Restricted *
*   by Symmetry License Agreement    *
**************************************
* Model generated on Sep 17, 96
* MODEL FORMAT: SPICE3
.MODEL 18tq045 d
+IS=1.97424e-13 RS=0.00628392 N=0.530234 EG=0.6
+XTI=0.05 BV=45 IBV=0.0001 CJO=8.24939e-09
+VJ=1.5 M=0.462568 FC=0.5 TT=0
+KF=0 AF=1
*$

**************************************
*      Model Generated by MODPEX     *
*Copyright(c) Symmetry Design Systems*
*         All Rights Reserved        *
*    UNPUBLISHED LICENSED SOFTWARE   *
*   Contains Proprietary Information *
*      Which is The Property of      *
*     SYMMETRY OR ITS LICENSORS      *
*Commercial Use or Resale Restricted *
*   by Symmetry License Agreement    *
**************************************
* Model generated on Nov 27, 96
* MODEL FORMAT: SPICE3
.MODEL 20cjq030 d
+IS=7.45927e-09 RS=0.0632601 N=0.89875 EG=1.3
+XTI=4 BV=30 IBV=0.0001 CJO=2.9346e-10
+VJ=0.4 M=0.427299 FC=0.5 TT=0
+KF=0 AF=1
*$

.MODEL 20clq045 d
+IS=5.55194e-10 RS=0.01 N=0.736126 EG=0.6
+XTI=0.5 BV=45 IBV=0.005 CJO=2.42073e-09
+VJ=0.470122 M=0.477502 FC=0.5 TT=0
+KF=0 AF=1
* Model generated on May 28, 96
* Model format: SPICE3
*$

.MODEL 20ETS12 d
+IS=8.28224e-09 RS=0.00791517 N=1.61051 EG=1.12793
+XTI=0.5 BV=1000 IBV=0.0001 CJO=1e-11
+VJ=0.7 M=0.5 FC=0.5 TT=1e-09
+KF=0 AF=1
* Model generated on Jan 30, 96
* Model format: SPICE3
*$

**************************************
*      Model Generated by MODPEX     *
*Copyright(c) Symmetry Design Systems*
*         All Rights Reserved        *
*    UNPUBLISHED LICENSED SOFTWARE   *
*   Contains Proprietary Information *
*      Which is The Property of      *
*     SYMMETRY OR ITS LICENSORS      *
*Commercial Use or Resale Restricted *
*   by Symmetry License Agreement    *
**************************************
* Model generated on Oct 16, 01
* MODEL FORMAT: SPICE3
.MODEL 22gq100 d
+IS=5.91885e-14 RS=0.0197462 N=0.527335 EG=0.6
+XTI=0.5 BV=100 IBV=0.0001 CJO=4.67713e-09
+VJ=0.4 M=0.513011 FC=0.5 TT=0
+KF=0 AF=1
*$

**************************************
*      Model Generated by MODPEX     *
*Copyright(c) Symmetry Design Systems*
*         All Rights Reserved        *
*    UNPUBLISHED LICENSED SOFTWARE   *
*   Contains Proprietary Information *
*      Which is The Property of      *
*     SYMMETRY OR ITS LICENSORS      *
*Commercial Use or Resale Restricted *
*   by Symmetry License Agreement    *
**************************************
* Model generated on Dec  3, 01
* MODEL FORMAT: SPICE3
.MODEL 30cljq045 d
+IS=6.17168e-07 RS=0.0202821 N=1.08809 EG=1.3
+XTI=3.29182 BV=45 IBV=0.0001 CJO=1.24067e-09
+VJ=0.408846 M=0.481835 FC=0.5 TT=0
+KF=0 AF=1
*$

**************************************
*      Model Generated by MODPEX     *
*Copyright(c) Symmetry Design Systems*
*         All Rights Reserved        *
*    UNPUBLISHED LICENSED SOFTWARE   *
*   Contains Proprietary Information *
*      Which is The Property of      *
*     SYMMETRY OR ITS LICENSORS      *
*Commercial Use or Resale Restricted *
*   by Symmetry License Agreement    *
**************************************
* Model generated on Nov 16, 01
* MODEL FORMAT: SPICE3
.MODEL 30cljq150 d
+IS=1.30646e-06 RS=0.0239928 N=2 EG=1.3
+XTI=3.05712 BV=150 IBV=0.0001 CJO=3.73861e-10
+VJ=0.4 M=0.457852 FC=0.5 TT=0
+KF=0 AF=1
*$

**************************************
*      Model Generated by MODPEX     *
*Copyright(c) Symmetry Design Systems*
*         All Rights Reserved        *
*    UNPUBLISHED LICENSED SOFTWARE   *
*   Contains Proprietary Information *
*      Which is The Property of      *
*     SYMMETRY OR ITS LICENSORS      *
*Commercial Use or Resale Restricted *
*   by Symmetry License Agreement    *
**************************************
* Model generated on May 31, 00
* MODEL FORMAT: SPICE3
.MODEL 30ctq060s d
+IS=0.001 RS=0.00753336 N=2.31312 EG=0.510131
+XTI=0.497683 BV=60 IBV=0.0001 CJO=1.18606e-09
+VJ=1.5 M=0.494139 FC=0.5 TT=1e-09
+KF=0 AF=1
*$

**************************************
*      Model Generated by MODPEX     *
*Copyright(c) Symmetry Design Systems*
*         All Rights Reserved        *
*    UNPUBLISHED LICENSED SOFTWARE   *
*   Contains Proprietary Information *
*      Which is The Property of      *
*     SYMMETRY OR ITS LICENSORS      *
*Commercial Use or Resale Restricted *
*   by Symmetry License Agreement    *
**************************************
* Model generated on Dec  3, 01
* MODEL FORMAT: SPICE3
.MODEL 30ljq045 d
+IS=3.01029e-08 RS=0.00758833 N=0.877045 EG=0.6
+XTI=0.5 BV=45 IBV=0.0001 CJO=2.65012e-09
+VJ=1.18451 M=0.511241 FC=0.5 TT=0
+KF=0 AF=1
*$

**************************************
*      Model Generated by MODPEX     *
*Copyright(c) Symmetry Design Systems*
*         All Rights Reserved        *
*    UNPUBLISHED LICENSED SOFTWARE   *
*   Contains Proprietary Information *
*      Which is The Property of      *
*     SYMMETRY OR ITS LICENSORS      *
*Commercial Use or Resale Restricted *
*   by Symmetry License Agreement    *
**************************************
* Model generated on Dec 21, 01
* MODEL FORMAT: SPICE3
.MODEL 30ljq100 d
+IS=2.8036e-05 RS=0.0100392 N=2 EG=0.6
+XTI=0.5 BV=100 IBV=0.0001 CJO=1.41531e-09
+VJ=0.4 M=0.47998 FC=0.5 TT=0
+KF=0 AF=1
*$

**************************************
*      Model Generated by MODPEX     *
*Copyright(c) Symmetry Design Systems*
*         All Rights Reserved        *
*    UNPUBLISHED LICENSED SOFTWARE   *
*   Contains Proprietary Information *
*      Which is The Property of      *
*     SYMMETRY OR ITS LICENSORS      *
*Commercial Use or Resale Restricted *
*   by Symmetry License Agreement    *
**************************************
* Model generated on Dec  3, 01
* MODEL FORMAT: SPICE3
.MODEL 30ljq150 d
+IS=4.79361e-06 RS=0.0108545 N=2 EG=1.3
+XTI=0.502388 BV=150 IBV=0.0001 CJO=9.09704e-10
+VJ=0.4 M=0.462283 FC=0.5 TT=0
+KF=0 AF=1
*$

**************************************
*      Model Generated by MODPEX     *
*Copyright(c) Symmetry Design Systems*
*         All Rights Reserved        *
*    UNPUBLISHED LICENSED SOFTWARE   *
*   Contains Proprietary Information *
*      Which is The Property of      *
*     SYMMETRY OR ITS LICENSORS      *
*Commercial Use or Resale Restricted *
*   by Symmetry License Agreement    *
**************************************
* Model generated on Dec  3, 01
* MODEL FORMAT: SPICE3
.MODEL 30scljq030 d
+IS=3.04923e-06 RS=0.0123656 N=1.0506 EG=1.3
+XTI=2.9944 BV=30 IBV=0.0001 CJO=1.61571e-09
+VJ=0.442068 M=0.472758 FC=0.5 TT=0
+KF=0 AF=1
*$

**************************************
*      Model Generated by MODPEX     *
*Copyright(c) Symmetry Design Systems*
*         All Rights Reserved        *
*    UNPUBLISHED LICENSED SOFTWARE   *
*   Contains Proprietary Information *
*      Which is The Property of      *
*     SYMMETRY OR ITS LICENSORS      *
*Commercial Use or Resale Restricted *
*   by Symmetry License Agreement    *
**************************************
* Model generated on Nov 16, 01
* MODEL FORMAT: SPICE3
.MODEL 30sljq030 d
+IS=2.08649e-07 RS=0.00676047 N=0.86202 EG=0.6
+XTI=0.5 BV=30 IBV=0.0001 CJO=5.85622e-09
+VJ=0.4 M=0.485403 FC=0.5 TT=0
+KF=0 AF=1
*$

.MODEL 32ctq030 d
+IS=2.21746e-11 RS=0.01 N=0.5 EG=0.6
+XTI=2.38672 BV=30 IBV=0.00175 CJO=2.11811e-09
+VJ=1.5 M=0.499425 FC=0.5 TT=0
+KF=0 AF=1
* Model generated on May 28, 96
* Model format: SPICE3
*$

.MODEL 32ctq030h d
+IS=1e-15 RS=0.01 N=0.5 EG=1.07785
+XTI=4 BV=30 IBV=0.00175 CJO=2.11811e-09
+VJ=1.5 M=0.499425 FC=0.5 TT=0
+KF=0 AF=1
* Model generated on May 28, 96
* Model format: SPICE3
*$

**************************************
*      Model Generated by MODPEX     *
*Copyright(c) Symmetry Design Systems*
*         All Rights Reserved        *
*    UNPUBLISHED LICENSED SOFTWARE   *
*   Contains Proprietary Information *
*      Which is The Property of      *
*     SYMMETRY OR ITS LICENSORS      *
*Commercial Use or Resale Restricted *
*   by Symmetry License Agreement    *
**************************************
* Model generated on Mar  8, 01
* MODEL FORMAT: SPICE3
.MODEL 35cgq100 d
+IS=1e-15 RS=0.01681 N=0.5 EG=0.608064
+XTI=0.500208 BV=100 IBV=0.0001 CJO=2.00581e-09
+VJ=1.24629 M=0.513186 FC=0.5 TT=1e-09
+KF=0 AF=1
*$

**************************************
*      Model Generated by MODPEX     *
*Copyright(c) Symmetry Design Systems*
*         All Rights Reserved        *
*    UNPUBLISHED LICENSED SOFTWARE   *
*   Contains Proprietary Information *
*      Which is The Property of      *
*     SYMMETRY OR ITS LICENSORS      *
*Commercial Use or Resale Restricted *
*   by Symmetry License Agreement    *
**************************************
* Model generated on Dec 19, 01
* MODEL FORMAT: SPICE3
.MODEL 35clq045 d
+IS=2.76847e-07 RS=0.00674255 N=1.0155 EG=1.3
+XTI=4 BV=45 IBV=0.0001 CJO=2.76301e-09
+VJ=1.01389 M=0.489865 FC=0.5 TT=0
+KF=0 AF=1
*$

**************************************
*      Model Generated by MODPEX     *
*Copyright(c) Symmetry Design Systems*
*         All Rights Reserved        *
*    UNPUBLISHED LICENSED SOFTWARE   *
*   Contains Proprietary Information *
*      Which is The Property of      *
*     SYMMETRY OR ITS LICENSORS      *
*Commercial Use or Resale Restricted *
*   by Symmetry License Agreement    *
**************************************
* Model generated on Jan 17, 02
* MODEL FORMAT: SPICE3
.MODEL 40cpq050 d
+IS=2.4532e-11 RS=0.0071 N=0.5 EG=0.6
+XTI=0.5 BV=1000 IBV=0.0001 CJO=2.49633e-09
+VJ=1.5 M=0.483473 FC=0.5 TT=1e-09
+KF=0 AF=1
*$

**************************************
*      Model Generated by MODPEX     *
*Copyright(c) Symmetry Design Systems*
*         All Rights Reserved        *
*    UNPUBLISHED LICENSED SOFTWARE   *
*   Contains Proprietary Information *
*      Which is The Property of      *
*     SYMMETRY OR ITS LICENSORS      *
*Commercial Use or Resale Restricted *
*   by Symmetry License Agreement    *
**************************************
* Model generated on Oct 28, 96
* MODEL FORMAT: SPICE3
.MODEL 40eps08 d
+IS=1e-15 RS=0.00426912 N=0.926332 EG=0.6
+XTI=0.5 BV=800 IBV=0.0001 CJO=1e-11
+VJ=0.7 M=0.5 FC=0.5 TT=1e-09
+KF=0 AF=1
*$

**************************************
*      Model Generated by MODPEX     *
*Copyright(c) Symmetry Design Systems*
*         All Rights Reserved        *
*    UNPUBLISHED LICENSED SOFTWARE   *
*   Contains Proprietary Information *
*      Which is The Property of      *
*     SYMMETRY OR ITS LICENSORS      *
*Commercial Use or Resale Restricted *
*   by Symmetry License Agreement    *
**************************************
* Model generated on Oct 28, 96
* MODEL FORMAT: SPICE3
.MODEL 40eps12 d
+IS=1e-15 RS=0.00426912 N=0.926332 EG=0.6
+XTI=0.5 BV=1200 IBV=0.0001 CJO=1e-11
+VJ=0.7 M=0.5 FC=0.5 TT=1e-09
+KF=0 AF=1
*$

**************************************
*      Model Generated by MODPEX     *
*Copyright(c) Symmetry Design Systems*
*         All Rights Reserved        *
*    UNPUBLISHED LICENSED SOFTWARE   *
*   Contains Proprietary Information *
*      Which is The Property of      *
*     SYMMETRY OR ITS LICENSORS      *
*Commercial Use or Resale Restricted *
*   by Symmetry License Agreement    *
**************************************
* Model generated on Oct 28, 96
* MODEL FORMAT: SPICE3
.MODEL 40eps16 d
+IS=1e-15 RS=0.00426912 N=0.926332 EG=0.6
+XTI=0.5 BV=1600 IBV=0.0001 CJO=1e-11
+VJ=0.7 M=0.5 FC=0.5 TT=1e-09
+KF=0 AF=1
*$

**************************************
*      Model Generated by MODPEX     *
*Copyright(c) Symmetry Design Systems*
*         All Rights Reserved        *
*    UNPUBLISHED LICENSED SOFTWARE   *
*   Contains Proprietary Information *
*      Which is The Property of      *
*     SYMMETRY OR ITS LICENSORS      *
*Commercial Use or Resale Restricted *
*   by Symmetry License Agreement    *
**************************************
* Model generated on Apr  1, 99
* MODEL FORMAT: SPICE3
.MODEL 50wq06fn d
+IS=1e-15 RS=0.0205874 N=0.5 EG=1.3
+XTI=0.5 BV=1000 IBV=0.0001 CJO=8.86241e-10
+VJ=0.899259 M=0.559144 FC=0.5 TT=1e-09
+KF=0 AF=1
*$

**************************************
*      Model Generated by MODPEX     *
*Copyright(c) Symmetry Design Systems*
*         All Rights Reserved        *
*    UNPUBLISHED LICENSED SOFTWARE   *
*   Contains Proprietary Information *
*      Which is The Property of      *
*     SYMMETRY OR ITS LICENSORS      *
*Commercial Use or Resale Restricted *
*   by Symmetry License Agreement    *
**************************************
* Model generated on Dec 19, 01
* MODEL FORMAT: SPICE3
.MODEL 60lq045 d
+IS=1e-07 RS=0.00252226 N=0.914851 EG=0.6
+XTI=0.5 BV=45 IBV=0.0001 CJO=6.87655e-09
+VJ=0.4 M=0.408789 FC=0.5 TT=0
+KF=0 AF=1
*$

**************************************
*      Model Generated by MODPEX     *
*Copyright(c) Symmetry Design Systems*
*         All Rights Reserved        *
*    UNPUBLISHED LICENSED SOFTWARE   *
*   Contains Proprietary Information *
*      Which is The Property of      *
*     SYMMETRY OR ITS LICENSORS      *
*Commercial Use or Resale Restricted *
*   by Symmetry License Agreement    *
**************************************
* Model generated on Dec 20, 01
* MODEL FORMAT: SPICE3
.MODEL 75lq150 d
+IS=6.47147e-05 RS=0.00457083 N=2 EG=0.6
+XTI=0.5 BV=150 IBV=0.0001 CJO=3.61923e-09
+VJ=0.4 M=0.479638 FC=0.5 TT=0
+KF=0 AF=1
*$

**************************************